@<TRIPOS>MOLECULE
co3/slc4a7_with_na_and_co3_hetb.pdb
 6 5 0 0 0
SMALL
GASTEIGER

@<TRIPOS>ATOM
      1  C        149.6000  143.0760  133.3560 C.2  1103  CO31103     0.5053
      2  O1       150.0970  142.9410  132.1650 O.2  1103  CO31103    -0.2032
      3  O2       149.7740  144.1850  134.0070 O.3  1103  CO31103    -0.4498
      4  O3       148.9300  142.0990  133.8920 O.3  1103  CO31103    -0.4498
      5 H         150.2575  144.8864  133.6168 H    1103  CO31103     0.2987
      6 H         148.8068  141.3000  133.4182 H    1103  CO31103     0.2987
@<TRIPOS>BOND
     1     2     1    2
     2     1     4    1
     3     1     3    1
     4     3     5    1
     5     4     6    1
